#======================================================================
# CRYSTAL DATA
#----------------------------------------------------------------------
data_VESTA_phase_1

_chemical_name_common                  'Triytterbium pentaaluminium oxide'
_cell_length_a                         11.9386(4)
_cell_length_b                         11.9386(4)
_cell_length_c                         11.9386(4)
_cell_angle_alpha                      90.000000
_cell_angle_beta                       90.000000
_cell_angle_gamma                      90.000000
_cell_volume                           1701.610510
_space_group_name_H-M_alt              'I a -3 d'
_space_group_IT_number                 230

loop_
_space_group_symop_operation_xyz
   'x, y, z'
   '-x, -y, -z'
   '-x+1/2, -y, z+1/2'
   'x+1/2, y, -z+1/2'
   '-x, y+1/2, -z+1/2'
   'x, -y+1/2, z+1/2'
   'x+1/2, -y+1/2, -z'
   '-x+1/2, y+1/2, z'
   'z, x, y'
   '-z, -x, -y'
   'z+1/2, -x+1/2, -y'
   '-z+1/2, x+1/2, y'
   '-z+1/2, -x, y+1/2'
   'z+1/2, x, -y+1/2'
   '-z, x+1/2, -y+1/2'
   'z, -x+1/2, y+1/2'
   'y, z, x'
   '-y, -z, -x'
   '-y, z+1/2, -x+1/2'
   'y, -z+1/2, x+1/2'
   'y+1/2, -z+1/2, -x'
   '-y+1/2, z+1/2, x'
   '-y+1/2, -z, x+1/2'
   'y+1/2, z, -x+1/2'
   'y+3/4, x+1/4, -z+1/4'
   '-y+1/4, -x+3/4, z+3/4'
   '-y+3/4, -x+3/4, -z+3/4'
   'y+1/4, x+1/4, z+1/4'
   'y+1/4, -x+1/4, z+3/4'
   '-y+3/4, x+3/4, -z+1/4'
   '-y+1/4, x+3/4, z+1/4'
   'y+3/4, -x+1/4, -z+3/4'
   'x+3/4, z+1/4, -y+1/4'
   '-x+1/4, -z+3/4, y+3/4'
   '-x+1/4, z+3/4, y+1/4'
   'x+3/4, -z+1/4, -y+3/4'
   '-x+3/4, -z+3/4, -y+3/4'
   'x+1/4, z+1/4, y+1/4'
   'x+1/4, -z+1/4, y+3/4'
   '-x+3/4, z+3/4, -y+1/4'
   'z+3/4, y+1/4, -x+1/4'
   '-z+1/4, -y+3/4, x+3/4'
   'z+1/4, -y+1/4, x+3/4'
   '-z+3/4, y+3/4, -x+1/4'
   '-z+1/4, y+3/4, x+1/4'
   'z+3/4, -y+1/4, -x+3/4'
   '-z+3/4, -y+3/4, -x+3/4'
   'z+1/4, y+1/4, x+1/4'
   'x+1/2, y+1/2, z+1/2'
   '-x+1/2, -y+1/2, -z+1/2'
   '-x, -y+1/2, z'
   'x, y+1/2, -z'
   '-x+1/2, y, -z'
   'x+1/2, -y, z'
   'x, -y, -z+1/2'
   '-x, y, z+1/2'
   'z+1/2, x+1/2, y+1/2'
   '-z+1/2, -x+1/2, -y+1/2'
   'z, -x, -y+1/2'
   '-z, x, y+1/2'
   '-z, -x+1/2, y'
   'z, x+1/2, -y'
   '-z+1/2, x, -y'
   'z+1/2, -x, y'
   'y+1/2, z+1/2, x+1/2'
   '-y+1/2, -z+1/2, -x+1/2'
   '-y+1/2, z, -x'
   'y+1/2, -z, x'
   'y, -z, -x+1/2'
   '-y, z, x+1/2'
   '-y, -z+1/2, x'
   'y, z+1/2, -x'
   'y+1/4, x+3/4, -z+3/4'
   '-y+3/4, -x+1/4, z+1/4'
   '-y+1/4, -x+1/4, -z+1/4'
   'y+3/4, x+3/4, z+3/4'
   'y+3/4, -x+3/4, z+1/4'
   '-y+1/4, x+1/4, -z+3/4'
   '-y+3/4, x+1/4, z+3/4'
   'y+1/4, -x+3/4, -z+1/4'
   'x+1/4, z+3/4, -y+3/4'
   '-x+3/4, -z+1/4, y+1/4'
   '-x+3/4, z+1/4, y+3/4'
   'x+1/4, -z+3/4, -y+1/4'
   '-x+1/4, -z+1/4, -y+1/4'
   'x+3/4, z+3/4, y+3/4'
   'x+3/4, -z+3/4, y+1/4'
   '-x+1/4, z+1/4, -y+3/4'
   'z+1/4, y+3/4, -x+3/4'
   '-z+3/4, -y+1/4, x+1/4'
   'z+3/4, -y+3/4, x+1/4'
   '-z+1/4, y+1/4, -x+3/4'
   '-z+3/4, y+1/4, x+3/4'
   'z+1/4, -y+3/4, -x+1/4'
   '-z+1/4, -y+1/4, -x+1/4'
   'z+3/4, y+3/4, x+3/4'

loop_
   _atom_site_label
   _atom_site_occupancy
   _atom_site_fract_x
   _atom_site_fract_y
   _atom_site_fract_z
   _atom_site_adp_type
   _atom_site_U_iso_or_equiv
   _atom_site_type_symbol
   Yb1         1.0     0.125000     0.000000     0.250000    Uani  0.250293 Yb
   Al1         1.0     0.000000     0.000000     0.000000    Uani  0.228975 Al
   Al2         1.0     0.375000     0.000000     0.250000    Uani  0.221079 Al
   O1          1.0    -0.02991(8)   0.05185(8)   0.14966(8)  Uani  0.221079 O

loop_
   _atom_site_aniso_label
   _atom_site_aniso_U_11
   _atom_site_aniso_U_22
   _atom_site_aniso_U_33
   _atom_site_aniso_U_12
   _atom_site_aniso_U_13
   _atom_site_aniso_U_23
   Yb1	 0.00201  0.00375  0.00375  0.00000  0.00000  0.00069
   Al1	 0.00290  0.00290  0.00290 -0.00006 -0.00006 -0.00006
   Al2	 0.00200  0.00320  0.00320  0.00000  0.00000  0.00000
   O1	 0.00270  0.00390  0.00180  0.00020  0.00020  0.00050

