
#======================================================================
# CRYSTAL DATA
#----------------------------------------------------------------------
data_VESTA_phase_1

_chemical_name_common                  ''
_cell_length_a                         6.51250(10)
_cell_length_b                         18.9371(2)
_cell_length_c                         9.75750(10)
_cell_angle_alpha                      90.000000
_cell_angle_beta                       108.9530(10)
_cell_angle_gamma                      90.000000
_cell_volume                           1138.131104
_space_group_name_H-M_alt              'C 1 c 1'
_space_group_IT_number                 9

loop_
_space_group_symop_operation_xyz
   'x, y, z'
   'x, -y, z+1/2'
   'x+1/2, y+1/2, z'
   'x+1/2, -y+1/2, z+1/2'

loop_
   _atom_site_label
   _atom_site_occupancy
   _atom_site_fract_x
   _atom_site_fract_y
   _atom_site_fract_z
   _atom_site_adp_type
   _atom_site_U_iso_or_equiv
   _atom_site_type_symbol
   Ca1        1.0     0.4582(11)   0.3929(4)    0.2371(8)   Uani  0.004837 Ca
   Si1        1.0     0.0692(13)   0.6204(4)    0.1838(9)   Uani  0.005883 Si
   Si2        1.0     0.5393(13)   0.5825(4)    0.3868(9)   Uani  0.005249 Si
   Si3        1.0     0.3604(14)   0.6675(4)    0.0156(9)   Uani  0.004366 Si
   Al1        1.0     0.7311(14)   0.7121(4)    0.2835(10)  Uani  0.003366 Al
   Al2        1.0     0.6466(14)   0.4674(4)    0.6194(11)  Uani  0.004503 Al
   O1         1.0     0.4818(9)    0.7185(4)    0.1452(7)   Uani  0.006615 O
   O2         1.0     0.2955(9)    0.7042(4)   -0.1426(7)   Uani  0.005321 O
   O3         1.0     0.5004(9)    0.5986(4)    0.0004(7)   Uani  0.005713 O
   O4         1.0    -0.0783(8)    0.5492(4)    0.1534(7)   Uani  0.006255 O
   O5         1.0     0.5729(8)    0.5502(4)    0.5440(7)   Uani  0.005857 O
   O6         1.0     0.5713(9)    0.5210(2)    0.2749(7)   Uani  0.006981 O
   O7         1.0     0.2879(9)    0.6099(4)    0.3182(7)   Uani  0.006203 O
   O8         1.0     0.7092(9)    0.6453(4)    0.4002(7)   Uani  0.005955 O
   O9         1.0     0.1325(9)    0.6384(4)    0.0383(7)   Uani  0.007079 O
   O10        1.0    -0.0624(9)    0.6866(2)    0.2155(7)   Uani  0.007523 O
   O11        1.0    -0.2152(11)   0.6710(4)   -0.2063(8)   Uani  0.012779 O
   O12        1.0     0.1008(11)   0.4232(4)    0.1254(8)   Uani  0.013807 O
   O13        1.0    -0.1381(11)   0.8043(4)    0.0570(9)   Uani  0.011669 O
   H5         1.0    -0.105(2)     0.7561(5)    0.0827(13)  Uani  0.026108 H
   H3         1.0     0.0330(18)   0.4682(7)    0.1284(13)  Uani  0.026990 H
   H1         1.0    -0.083(2)     0.6605(7)   -0.1327(15)  Uani  0.029383 H
   H6         1.0    -0.207(2)     0.8082(7)   -0.0414(15)  Uani  0.032578 H
   H2         1.0    -0.174(2)     0.7004(7)   -0.2757(14)  Uani  0.029545 H
   H4         1.0    -0.017(2)     0.3947(7)    0.0561(14)  Uani  0.030876 H

loop_
   _atom_site_aniso_label
   _atom_site_aniso_U_11
   _atom_site_aniso_U_22
   _atom_site_aniso_U_33
   _atom_site_aniso_U_12
   _atom_site_aniso_U_13
   _atom_site_aniso_U_23
   Ca1	 0.00500  0.00400  0.00700  0.00100  0.00400  0.00300
   Si1	 0.00900  0.00300  0.00800 -0.00100  0.00600 -0.00200
   Si2	 0.00600  0.00300  0.00800  0.00300  0.00400  0.00100
   Si3	 0.00600  0.00600  0.00100  0.00500  0.00100  0.00300
   Al1	 0.00500  0.00300  0.00200  0.00200  0.00100  0.00300
   Al2	 0.00400  0.00300  0.00800  0.00100  0.00400  0.00500
   O1	 0.00600  0.00900  0.00500 -0.00100  0.00200 -0.00100
   O2	 0.01000  0.00400  0.00200 -0.00100  0.00200  0.00000
   O3	 0.00600  0.00400  0.00900 -0.00100  0.00500 -0.00200
   O4	 0.00900  0.00300  0.00900  0.00100  0.00600  0.00100
   O5	 0.00800  0.00600  0.00300 -0.00100  0.00100 -0.00200
   O6	 0.00900  0.00300  0.00900 -0.00200  0.00300  0.00000
   O7	 0.00800  0.01000  0.00100 -0.00100  0.00200  0.00000
   O8	 0.00700  0.00400  0.00800 -0.00300  0.00400  0.00000
   O9	 0.00500  0.01000  0.00700 -0.00200  0.00300  0.00200
   O10	 0.00800  0.00300  0.01600  0.00300  0.01000  0.00300
   O11	 0.00900  0.02000  0.01000  0.00000  0.00400  0.00600
   O12	 0.01100  0.00900  0.01800  0.00200  0.00000  0.00000
   O13	 0.01700  0.00700  0.01000 -0.00200  0.00300 -0.00100
   H5	 0.03500  0.01700  0.02700  0.00400  0.01100  0.00700
   H3	 0.02000  0.02300  0.03900  0.00500  0.01100 -0.00600
   H1	 0.01800  0.03700  0.03100  0.00400  0.00500  0.00200
   H6	 0.04000  0.04200  0.01700  0.00300  0.01100 -0.00100
   H2	 0.02700  0.04000  0.02300 -0.00800  0.01000  0.00600
   H4	 0.02100  0.02600  0.03600  0.00100 -0.00400 -0.00900
