
#======================================================================
# CRYSTAL DATA
#----------------------------------------------------------------------
data_VESTA_phase_1

_chemical_name_common                  'Tb8 Ga36 Ir12'
_cell_length_a                         13.166818
_cell_length_b                         7.606772
_cell_length_c                         9.516334
_cell_angle_alpha                      90.000000
_cell_angle_beta                       90.000000
_cell_angle_gamma                      90.000000
_cell_volume                           953.127225
_space_group_name_H-M_alt              'C m c m'
_space_group_IT_number                 63

loop_
_space_group_symop_operation_xyz
   'x, y, z'
   '-x, -y, -z'
   '-x, -y, z+1/2'
   'x, y, -z+1/2'
   '-x, y, -z+1/2'
   'x, -y, z+1/2'
   'x, -y, -z'
   '-x, y, z'
   'x+1/2, y+1/2, z'
   '-x+1/2, -y+1/2, -z'
   '-x+1/2, -y+1/2, z+1/2'
   'x+1/2, y+1/2, -z+1/2'
   '-x+1/2, y+1/2, -z+1/2'
   'x+1/2, -y+1/2, z+1/2'
   'x+1/2, -y+1/2, -z'
   '-x+1/2, y+1/2, z'

loop_
   _atom_site_label
   _atom_site_occupancy
   _atom_site_fract_x
   _atom_site_fract_y
   _atom_site_fract_z
   _atom_site_adp_type
   _atom_site_U_iso_or_equiv
   _atom_site_type_symbol
   Tb0        1.0     0.164617     0.167518     0.750000    Uiso  ? Tb
   Ga1        1.0     0.167193     0.166596     0.079833    Uiso  ? Ga
   Ga2        1.0     0.000000     0.332944     0.563363    Uiso  ? Ga
   Ga3        1.0     0.103432     0.442129     0.250000    Uiso  ? Ga
   Ga4        1.0     0.000000     0.127022     0.250000    Uiso  ? Ga
   Ir5        1.0     0.171427     0.500000     0.000000    Uiso  ? Ir
   Ir6        1.0     0.000000     0.000000     0.000000    Uiso  ? Ir
